Version 4
SHEET 1 2508 1256
WIRE 1456 -768 1376 -768
WIRE 1456 -736 1456 -768
WIRE 1744 -736 1456 -736
WIRE 1456 -704 1456 -736
WIRE 1040 -640 720 -640
WIRE 1136 -624 1136 -736
WIRE 1136 -624 1072 -624
WIRE 1376 -624 1136 -624
WIRE 1456 -624 1376 -624
WIRE 640 -608 544 -608
WIRE 992 -608 992 -736
WIRE 992 -608 640 -608
WIRE 1008 -608 992 -608
WIRE 1120 -592 1072 -592
WIRE 720 -576 720 -640
WIRE 720 -576 608 -576
WIRE 1040 -544 1040 -576
WIRE 1120 -544 1120 -592
WIRE -64 -448 -128 -448
WIRE 608 -432 608 -576
WIRE 16 -400 -16 -400
WIRE 544 -400 544 -608
WIRE 576 -400 544 -400
WIRE 688 -400 656 -400
WIRE -336 -368 -384 -368
WIRE -64 -368 -256 -368
WIRE 480 -368 448 -368
WIRE 576 -368 480 -368
WIRE 1584 -368 1520 -368
WIRE 1584 -352 1584 -368
WIRE 592 -320 592 -336
WIRE 608 -320 608 -336
WIRE 608 -320 592 -320
WIRE 624 -320 624 -336
WIRE 624 -320 608 -320
WIRE 608 -304 608 -320
WIRE 1520 -288 1520 -368
WIRE 1520 -256 1520 -288
WIRE 1584 -256 1584 -272
WIRE -64 -240 -64 -368
WIRE 688 -224 688 -400
WIRE 1520 -144 1520 -176
WIRE 1616 -144 1520 -144
WIRE 1520 -128 1520 -144
WIRE 1616 -32 1616 -80
WIRE 1744 -32 1744 -736
WIRE 1744 -32 1696 -32
WIRE 1792 -32 1744 -32
WIRE 1840 -32 1792 -32
WIRE 1968 -32 1840 -32
WIRE 1744 -16 1744 -32
WIRE 1840 -16 1840 -32
WIRE 1968 -16 1968 -32
WIRE 2112 -16 2064 -16
WIRE 2224 -16 2112 -16
WIRE 992 16 960 16
WIRE 688 32 688 -224
WIRE 896 32 688 32
WIRE 992 32 992 16
WIRE 1440 32 992 32
WIRE 1472 32 1440 32
WIRE 1744 64 1744 48
WIRE 1840 64 1744 64
WIRE 1520 80 1520 48
WIRE 1744 80 1744 64
WIRE 2224 112 2224 64
WIRE 1392 128 1360 128
WIRE 2064 144 2064 -16
WIRE 2064 144 2016 144
WIRE 1392 160 1392 128
FLAG -240 -448 0
FLAG -384 -368 0
FLAG 1584 -256 0
FLAG 1744 80 0
FLAG 1520 80 0
FLAG 1584 -368 IN
FLAG 2224 112 0
FLAG 1968 160 0
FLAG 368 -368 0
FLAG 1280 -448 0
FLAG 1456 -544 0
FLAG 608 -304 0
FLAG 720 -496 0
FLAG 1136 -624 Vfb
FLAG 1440 32 Vgate
FLAG 1792 -32 Vbatt
FLAG 1520 -288 Vgen
FLAG 2112 -16 Vload
FLAG 480 -368 Vref
FLAG 144 64 0
FLAG 1392 160 0
FLAG 688 -224 VfbOut
FLAG 1232 -368 0
FLAG 1120 -464 0
FLAG 1040 -464 0
FLAG 640 -608 Vc
SYMBOL voltage 720 -592 M0
WINDOW 123 0 0 Left 0
WINDOW 39 0 0 Left 0
SYMATTR InstName V1
SYMATTR Value 15
SYMBOL voltage -240 -368 R90
WINDOW 123 74 56 VTop 2
WINDOW 39 53 56 VTop 2
WINDOW 0 -32 56 VBottom 2
WINDOW 3 32 56 VTop 2
SYMATTR InstName V2
SYMATTR Value PULSE(0 8 0 10n 10n 1.9u 3.33u)
SYMBOL nmos 1472 -48 R0
SYMATTR InstName M1
SYMATTR Value IPB039N10N3
SYMBOL ind 1808 -304 R270
WINDOW 0 32 56 VTop 2
WINDOW 3 5 56 VBottom 2
SYMATTR InstName L1
SYMATTR Value 10µ
SYMATTR SpiceLine Rser=3m
SYMBOL cap 1728 -16 R0
WINDOW 3 32 52 Left 2
SYMATTR Value 10µ
SYMATTR SpiceLine Rser=7m
SYMATTR InstName C1
SYMBOL res 1504 -144 R0
SYMATTR InstName R1
SYMATTR Value 1
SYMBOL voltage 1584 -368 R0
SYMATTR InstName V3
SYMATTR Value 400
SYMBOL diode 2080 176 M180
WINDOW 0 24 64 Left 2
WINDOW 3 114 8 Left 2
SYMATTR InstName D2
SYMATTR Value RF1001NS2D
SYMBOL res 1712 -48 R90
WINDOW 0 0 56 VBottom 2
WINDOW 3 32 56 VTop 2
SYMATTR InstName R2
SYMATTR Value 0.01
SYMBOL res 1504 -272 R0
SYMATTR InstName R3
SYMATTR Value 5
SYMBOL res 1824 -32 R0
SYMATTR InstName R4
SYMATTR Value 10
SYMBOL voltage 2224 -32 R0
WINDOW 123 74 56 VTop 2
WINDOW 39 53 56 VTop 2
WINDOW 0 -32 56 VBottom 2
WINDOW 3 32 56 VTop 2
SYMATTR InstName V4
SYMATTR Value PULSE(0 8 0 10n 10n 50u 120.33u)
SYMBOL nmos 2016 64 M0
SYMATTR InstName M2
SYMATTR Value IPB039N10N3
SYMBOL res 1952 -32 R0
SYMATTR InstName R5
SYMATTR Value 10
SYMBOL Opamps\\LT1014 416 -672 R0
SYMATTR InstName U1
SYMBOL Opamps\\LT1014 192 -656 R0
SYMATTR InstName U2
SYMBOL voltage 464 -368 R90
WINDOW 123 74 56 VTop 2
WINDOW 39 53 56 VTop 2
WINDOW 0 -32 56 VBottom 2
WINDOW 3 36 177 VTop 2
SYMATTR InstName V5
SYMATTR Value PULSE(0 15 0 2.5u 2.5u 1n 5u)
SYMBOL cap 1360 -688 R0
WINDOW 3 23 51 Left 2
SYMATTR InstName C2
SYMATTR Value 10p
SYMBOL res 1440 -720 R0
SYMATTR InstName R6
SYMATTR Value 100k
SYMBOL res 1440 -640 R0
SYMATTR InstName R7
SYMATTR Value 3.5k
SYMBOL Comparators\\LT1016 608 -448 R0
WINDOW 3 95 63 Left 2
SYMATTR InstName U3
SYMBOL Digital\\inv 496 32 R0
WINDOW 3 -90 105 Left 2
SYMATTR InstName A1
SYMATTR Value Vhigh=12 Vlow=0
SYMBOL voltage 1120 -560 M0
WINDOW 123 0 0 Left 0
WINDOW 39 0 0 Left 0
SYMATTR InstName V6
SYMATTR Value 6
SYMBOL cap 1376 64 R0
SYMATTR InstName C3
SYMATTR Value 1µ
SYMBOL Opamps\\LT1213 1040 -672 M0
SYMATTR InstName U4
SYMBOL res 1152 -752 R90
WINDOW 0 0 56 VBottom 2
WINDOW 3 32 56 VTop 2
SYMATTR InstName R8
SYMATTR Value 40k
SYMBOL cap 1056 -752 R90
WINDOW 0 0 32 VBottom 2
WINDOW 3 32 32 VTop 2
SYMATTR InstName C4
SYMATTR Value 10p
SYMBOL res 1360 -784 R0
SYMATTR InstName R9
SYMATTR Value 10k
SYMBOL Digital\\buf 896 -32 R0
WINDOW 3 8 44 Left 2
SYMATTR InstName A2
SYMATTR Value Vhigh=12 Vlow=0 Ref=1.5
SYMBOL diode 1600 -144 R0
SYMATTR InstName D1
SYMBOL voltage 1040 -560 M0
WINDOW 123 0 0 Left 0
WINDOW 39 0 0 Left 0
SYMATTR InstName V7
SYMATTR Value -0.2
TEXT 1440 192 Left 2 !.tran 0.5m startup
